<routes>
    <flow id="flow_1" from="-h11" to="-h13" begin="0" end="100000" vehsPerHour="25" departSpeed="max" departPos="base" departLane="best"/>
    <flow id="flow_2" from="-h21" to="-h23" begin="0" end="100000" vehsPerHour="25" departSpeed="max" departPos="base" departLane="best"/>
    <flow id="flow_3" from="-v11" to="-v13" begin="0" end="100000" vehsPerHour="25" departSpeed="max" departPos="base" departLane="best"/> 
    <flow id="flow_4" from="-v21" to="-v23" begin="0" end="100000" vehsPerHour="25" departSpeed="max" departPos="base" departLane="best"/>
    
    <flow id="flow_5" from="h13" to="h11" begin="0" end="100000" vehsPerHour="25" departSpeed="max" departPos="base" departLane="best"/>
    
    <flow id="flow_6" from="h13" to="-v13" begin="0" end="100000" vehsPerHour="25" departSpeed="max" departPos="base" departLane="best"/>
    <flow id="flow_7" from="h13" to="v21" begin="0" end="100000" vehsPerHour="25" departSpeed="max" departPos="base" departLane="best"/>
    
    
    <flow id="flow_8" from="h23" to="h21" begin="0" end="100000" vehsPerHour="25" departSpeed="max" departPos="base" departLane="best"/>
    
    <flow id="flow_9" from="h23" to="-v23" begin="0" end="100000" vehsPerHour="25" departSpeed="max" departPos="base" departLane="best"/>
    <flow id="flow_10" from="h23" to="v21" begin="0" end="100000" vehsPerHour="25" departSpeed="max" departPos="base" departLane="best"/>
   
  
    
    <flow id="flow_11" from="-v21" to="-h13" begin="0" end="100000" vehsPerHour="25" departSpeed="max" departPos="base" departLane="best"/>
    
    <flow id="flow_13" from="-h11" to="v11" begin="0" end="100000" vehsPerHour="25" departSpeed="max" departPos="base" departLane="best"/>
    
    
    <flow id="flow_14" from="-h11" to="-v13" begin="0" end="100000" vehsPerHour="25" departSpeed="max" departPos="base" departLane="best"/>
    
    
    
    
    
    <flow id="flow_15" from="-v21" to="h11" begin="0" end="100000" vehsPerHour="25" departSpeed="max" departPos="base" departLane="best"/>
    
    
    <flow id="flow_16" from="-v11" to="h11" begin="0" end="100000" vehsPerHour="25" departSpeed="max" departPos="base" departLane="best"/>
    <flow id="flow_17" from="-v11" to="-h13" begin="0" end="100000" vehsPerHour="25" departSpeed="max" departPos="base" departLane="best"/>
    
    <flow id="flow_18" from="v13" to="-h23" begin="0" end="100000" vehsPerHour="25" departSpeed="max" departPos="base" departLane="best"/>
    
    <flow id="flow_19" from="v13" to="-h13" begin="0" end="100000" vehsPerHour="25" departSpeed="max" departPos="base" departLane="best"/>
    
    <flow id="flow_20" from="v13" to="v11" begin="0" end="100000" vehsPerHour="25" departSpeed="max" departPos="base" departLane="best"/>
    
    
    
    
    <flow id="flow_21" from="v23" to="v21" begin="0" end="100000" vehsPerHour="25" departSpeed="max" departPos="base" departLane="best"/>
    <flow id="flow_22" from="v23" to="-h13" begin="0" end="100000" vehsPerHour="25" departSpeed="max" departPos="base" departLane="best"/>
    
    <flow id="flow_23" from="v23" to="-h23" begin="0" end="100000" vehsPerHour="25" departSpeed="max" departPos="base" departLane="best"/> 

     
    <flow id="flow_24" from="-h21" to="v11" begin="0" end="100000" vehsPerHour="25" departSpeed="max" departPos="base" departLane="best"/>
    
    <flow id="flow_25" from="-h21" to="-v13" begin="0" end="100000" vehsPerHour="25" departSpeed="max" departPos="base" departLane="best"/> 
    
    
</routes>
